





                                  ****
                                *      *
                               *        *
                               *  N A S T R A N
                               *        *
                                *      *
                                  ****


                            INTEL COMPUTER SYSTEMS   
                                 LINUX VERSION 

                          SYSTEM RELEASE -  1995 ED.

                                DISTRIBUTED BY

         COMPUTER SOFTWARE MANAGEMENT AND INFORMATION CENTER (COSMIC)
                 UNIVERSITY OF GEORGIA, ATHENS, GEORGIA 30602
                 PHONE: (706)542-3265      FAX: (706)542-4807
1                                                                           /    95 INTEL LINUX NASTRAN    / OCT  4, 22 / PAGE     2
                                                                                                                                    
0                                                                                                                                   
                                                                                                         
                                                                                                         
                         INSTALLATION CENTER USER INFORMATION GIVEN IN THIS SECTION                      
                                                                                                         
                                     *********************************************                       
                                     *                                           *                       
                                     *  PLEASE READ THE COMMENT IN DEMO PROBLEM  *                       
                                     *  D01002A ABOUT SYSTEM TIMING CONSTANTS    *                       
                                     *                                           *                       
                                     *********************************************                       
                                                                                                         
                         ===X=    TOP OF PAGE REQUEST IF 'X' IS REPLACED BY '='                          
                                                                                                         
1                                                                           /    95 INTEL LINUX NASTRAN    / OCT  4, 22 / PAGE     3
                                                                                                                                    
0                                                                                                                                   
0*** USER INFORMATION MESSAGE 225, GINO TIME CONSTANTS ARE BEING COMPUTED
     (SEE NASINFO FILE FOR ELIMINATION OF THESE COMPUTATIONS)
1                                                                           /    95 INTEL LINUX NASTRAN    / OCT  4, 22 / PAGE     4
                                                                                                                                    
0        N A S T R A N    E X E C U T I V E    C O N T R O L    D E C K    E C H O                                                  
0                                                                                                                                   
                                                                                                                                    
                                                                                                                                    
     ID SB14,NASTRAN                                                                 
     $                                                                               
     $SOL   MODES                                                                    
     $TIME  10                                                                       
     $DIAG 14,18                                                                     
     $ALTER 83                                                                       
     $OUTPUT4   MGG ,,,,//0/14/3                                                     
     $OUTPUT4   KGG ,,,,//0/15/3                                                     
     $ENDALTER                                                                       
     $                                                                               
     APP   AERO                                                                      
     SOL   10                                                                        
     TIME  10                                                                        
     DIAG  14,18                                                                     
     ALTER 64                                                                        
     $OUTPUT4   MAA,KAA,PHIA,,//0/17/3                                               
     TABPRT    EQEXIN // C,N,EQEXIN                                                  
     ALTER 93                                                                        
     OUTPUT4   PHIG,,,,//0/14/3                                                      
     OUTPUT4   MHH,,,,//0/15/3                                                       
     OUTPUT4   BHH,,,,//0/16/3                                                       
     OUTPUT4   KHH,,,,//0/17/3                                                       
     OUTPUT4   QHHL,,,,//0/18/3                                                      
     $OUTPUT4   AJJL,SKJ,D1JK,D2JK,GTKA//0/19/3                                      
     ENDALTER                                                                        
     $                                                                               
     $------------------------------------------------------------------------       
     CEND                                                                            
1     SB14 FLUTTER ANALYSIS                                                 /    95 INTEL LINUX NASTRAN    / OCT  4, 22 / PAGE     5
      BLOCKED CONTROLS                                                                                                              
0                                                                                                                                   
0                                        C A S E    C O N T R O L   D E C K   E C H O                                               
                 CARD                                                                                                               
                 COUNT                                                                                                              
                  1      $                                                                               
                  2      TITLE = SB14 FLUTTER ANALYSIS                                                   
                  3      SUBTITLE = BLOCKED CONTROLS                                                     
                  4      ECHO = PUNCH                                                                    
                  5      $LINES = 999999                                                                 
                  6      SUBCASE 10                                                                      
                  7      $  SDAMP  = 30        $ Modal Damping                                           
                  8        METHOD = 10                                                                   
                  9        FMETHOD = 30                                                                  
                 10        SPC = 100                                                                     
                 11        DISPLACEMENT(PUNCH) = ALL                                                     
                 12        GPFORCE = ALL                                                                 
                 13      $ APRESSURE  = ALL                                                              
                 14      $  AEROF   = ALL                                                                
                 15      $                                                                               
                 16      $...1...|...2...|...3...|...4...|...5...|...6...|...7...|...8...|...9...|..10...
                 17      $                                                                               
                 18      BEGIN BULK                                                                      


                        (NO. OF UNSORTED BULK DATA CARDS READ =  2634, INCLUDING   0 COMMENT CARDS)
0*** USER INFORMATION MESSAGE 207, BULK DATA DECK IS NOT SORTED. NASTRAN WILL RE-ORDER THE INPUT DECK.
0*** USER INFORMATION MESSAGE, THE FOLLOWING PROPERTY IDS ARE PRESENT BUT NOT USED -

          5050     6590
1     SB14 FLUTTER ANALYSIS                                                 /    95 INTEL LINUX NASTRAN    / OCT  4, 22 / PAGE     6
      BLOCKED CONTROLS                                                                                                              
0                                                                                                                                   
0         COSMIC / NASTRAN DMAP COMPILER - SOURCE LISTING                                                                           
                                                                                                                                    
                                                                                                                                    
0  OPTIONS IN EFFECT GO      ERR=2   LIST    NODECK  NOREF   NOOSCAR 
   -----------------


       1  BEGIN    AERO 10 - MODAL FLUTTER ANALYSIS - APR. 1995 $                 

       2  PRECHK   ALL $                                                          

       3  FILE     PHIHL=APPEND/AJJL=APPEND/FSAVE=APPEND/CASEYY=APPEND/           
                   CLAMAL=APPEND/OVG=APPEND/QHHL=APPEND/SKJ=APPEND/QHJL=APPEND/   
                   QKHL=APPEND/ $                                                 

       4  PARAM    //*MPY*/CARDNO/0/0 $                                           

       5  GP1      GEOM1,GEOM2,/GPL,EQEXIN,GPDT,CSTM,BGPDT,SIL/S,N,LUSET/         
                   S,N,NOGPDT/MINUS1=-1 $                                         

       6  ANISOP   GEOM1,EPT,BGPDT,EQEXIN,MPT/MPTA/S,N,ISOP $                     

       7  EQUIV    MPTA,MPT/ISOP $                                                

       8  COND     ERROR5,NOGPDT $                                                

       9  GP2      GEOM2,EQEXIN/ECT $                                             

      10  PARAML   PCDB//*PRES*////JUMPPLOT $                                     

      11  GP3      GEOM3,EQEXIN,GEOM2/,GPTT/NOGRAV $                              

      12  TA1      ECT,EPT,BGPDT,SIL,GPTT,CSTM,MPT,EQEXIN/EST,GEI,GPECT,,,MPTX,   
                   PCOMPS,EPTX/LUSET/S,N,NOSIMP/1/S,N,NOGENL/GENEL/S,N,COMPS $    

      13  EQUIV    MPTX,MPT/COMPS/EPTX,EPT/COMPS $                                

      14  COND     ERROR1,NOSIMP $                                                

      15  PARAM    //*ADD*/NOKGGX/1/0 $                                           

      16  PARAM    //*ADD*/NOMGG /1/0 $                                           

      17  EMG      EST,CSTM,MPT,DIT,GEOM2,/KELM,KDICT,MELM,MDICT,,,/S,N,NOKGGX/   
                   S,N,NOMGG////C,Y,COUPMASS/C,Y,CPBAR/C,Y,CPROD/                 
                   C,Y,CPQUAD1/C,Y,CPQUAD2/C,Y,CPTRIA1/C,Y,CPTRIA2/C,Y,CPTUBE/    
                   C,Y,CPQDPLT/C,Y,CPTRPLT/C,Y,CPTRBSC/                           
                   C,Y,VOLUME/C,Y,SURFACE $                                       
1     SB14 FLUTTER ANALYSIS                                                 /    95 INTEL LINUX NASTRAN    / OCT  4, 22 / PAGE     7
      BLOCKED CONTROLS                                                                                                              

                                                                                                                                    

          COSMIC / NASTRAN DMAP COMPILER - SOURCE LISTING                                                                           
                                                                                                                                    
                                                                                                                                    

      18  PURGE    KGGX/NOKGGX $                                                  

      19  COND     JMPKGGX,NOKGGX $                                               

      20  EMA      GPECT,KDICT,KELM/KGGX $                                        

      21  PURGE    KDICT,KELM/MINUS1 $                                            

      22  LABEL    JMPKGGX $                                                      

      23  COND     ERROR1,NOMGG $                                                 

      24  EMA      GPECT,MDICT,MELM/MGG/-1/C,Y,WTMASS=1.0 $                       

      25  PURGE    MDICT,MELM/MINUS1 $                                            

      26  COND     LGPWG,GRDPNT $                                                 

      27  GPWG     BGPDT,CSTM,EQEXIN,MGG/OGPWG/V,Y,GRDPNT=-1/C,Y,WTMASS $         

      28  OFP      OGPWG,,,,,//S,N,CARDNO $                                       

      29  LABEL    LGPWG $                                                        

      30  EQUIV    KGGX,KGG/NOGENL $                                              

      31  COND     LBL11,NOGENL $                                                 

      32  SMA3     GEI,KGGX/KGG/LUSET/NOGENL/NOSIMP $                             

      33  LABEL    LBL11 $                                                        

      34  GPSTGEN  KGG,SIL/GPST $                                                 

      35  GP4      CASECC,GEOM4,EQEXIN,GPDT,BGPDT,CSTM,GPST/RG,,USET,             
                   ASET,OGPST/LUSET/S,N,MPCF1/S,N,MPCF2/S,N,SINGLE/S,N,OMIT/      
                   S,N,REACT/0/REPEAT/S,N,NOSET/S,N,NOL/S,N,NOA/                  
                   C,Y,ASETOUT/C,Y,AUTOSPC $                                      

      36  OFP      OGPST,,,,,//S,N,CARDNO $                                       

      37  EQUIV    KGG,KNN/MPCF1/MGG,MNN/MPCF1 $                                  

      38  PURGE    GM/MPCF1/DM,MR/REACT $                                         

      39  COND     LBL2,MPCF1 $                                                   
1     SB14 FLUTTER ANALYSIS                                                 /    95 INTEL LINUX NASTRAN    / OCT  4, 22 / PAGE     8
      BLOCKED CONTROLS                                                                                                              

                                                                                                                                    

          COSMIC / NASTRAN DMAP COMPILER - SOURCE LISTING                                                                           
                                                                                                                                    
                                                                                                                                    

      40  MCE1     USET,RG/GM $                                                   

      41  MCE2     USET,GM,KGG,MGG,,/KNN,MNN,, $                                  

      42  LABEL    LBL2 $                                                         

      43  EQUIV    KNN,KFF/SINGLE/MNN,MFF/SINGLE $                                

      44  COND     LBL3,SINGLE $                                                  

      45  SCE1     USET,KNN,MNN,,/KFF,KFS,,MFF,, $                                

      46  LABEL    LBL3 $                                                         

      47  EQUIV    KFF,KAA/OMIT/ MFF,MAA/OMIT $                                   

      48  PURGE    GO/OMIT $                                                      

      49  COND     LBL5,OMIT $                                                    

      50  PARAM    //*PREC*/PREC $                                                

      51  SMP1     USET,KFF,,,/GO,KAA,KOO,LOO,,,,, $                              

      52  SMP2     USET,GO,MFF/MAA $                                              

      53  LABEL    LBL5 $                                                         

      54  COND     LBL6,REACT $                                                   

      55  RBMG1    USET,KAA,MAA/KLL,KLR,KRR,MLL,MLR,MRR $                         

      56  RBMG2    KLL/LLL/ $                                                     

      57  RBMG3    LLL,KLR,KRR/DM $                                               

      58  RBMG4    DM,MLL,MLR,MRR/MR $                                            

      59  LABEL    LBL6 $                                                         

      60  DPD      DYNAMICS,GPL,SIL,USET/GPLD,SILD,USETD,TFPOOL,,,,,,EED,EQDYN/   
                   LUSET/S,N,LUSETD/NOTFL/NODLT/NOPSDL/NOFRL/                     
                   NONLFT/NOTRL/S,N,NOEED/123/S,N,NOUE $                          

      61  COND     ERROR2,NOEED $                                                 
1     SB14 FLUTTER ANALYSIS                                                 /    95 INTEL LINUX NASTRAN    / OCT  4, 22 / PAGE     9
      BLOCKED CONTROLS                                                                                                              

                                                                                                                                    

          COSMIC / NASTRAN DMAP COMPILER - SOURCE LISTING                                                                           
                                                                                                                                    
                                                                                                                                    

      62  EQUIV    GO,GOD/NOUE/GM,GMD/NOUE $                                      

      63  READ     KAA,MAA,MR,DM,EED,USET,CASECC/LAMA,PHIA,MI,OEIGS/*MODES*/S,N,  
                   NEIGV $                                                        

      64  OFP      OEIGS,,,,,//S,N,CARDNO $                                       

      64  TABPRT    EQEXIN // C,N,EQEXIN                                          

      65  COND     ERROR4,NEIGV $                                                 

      66  OFP      LAMA,,,,,//S,N,CARDNO $                                        

      67  MTRXIN   CASECC,MATPOOL,EQDYN,,TFPOOL/K2PP,M2PP,B2PP/LUSETD/S,N,        
                   NOK2PP/S,N,NOM2PP/S,N,NOB2PP $                                 

      68  EQUIV    M2PP,M2DD/NOA/B2PP,B2DD/NOA/K2PP,K2DD/NOA $                    

      69  GKAD     USETD,GM,GO,,,,,K2PP,M2PP,B2PP/,,,GMD,GOD,K2DD,M2DD,B2DD/      
                   *CMPLEV*/*DISP*/*MODAL*/0.0/0.0/0.0/NOK2PP/                    
                   NOM2PP/NOB2PP/MPCF1/SINGLE/OMIT/NOUE/                          
                   -1/-1/   -1/-1 $                                               

      70  GKAM     USETD,PHIA,,LAMA,DIT,M2DD,B2DD,K2DD,CASECC/MHH,BHH,KHH,        
                   PHIDH/NOUE/C,Y,LMODES=0/C,Y,LFREQ=0./C,Y,HFREQ=-1.0/           
                   NOM2PP/NOB2PP/NOK2PP/S,N,NONCUP/S,N,FMODE/C,Y,KDAMP $          

      71  APD      EDT,EQDYN,ECT,BGPDT,SILD,USETD,CSTM,GPLD/EQAERO,ECTA,BGPA,SILA,
                   USETA,SPLINE,AERO,ACPT,FLIST,CSTMA,GPLA,SILGA/S,N,NK/S,N,NJ/   
                   S,N,LUSETA/S,N,BOV $                                           

      72  PARAM    //*MPY*/PFILE/0/1 $                                            

      73  PURGE    PLTSETA,PLTPARA,GPSETSA,ELSETSA/JUMPPLOT $                     

      74  COND     SKPPLT,JUMPPLOT $                                              

      75  PARAM    //*MPY*/PLTFLG/0/1 $                                           

      76  PLTSET   PCDB,EQAERO,ECTA,/PLTSETA,PLTPARA,GPSETSA,ELSETSA/S,N,NSIL1/   
                   S,N,JUMPPLOT $                                                 

      77  PRTMSG   PLTSETA // $                                                   

      78  COND     SKPPLT,JUMPPLOT $                                              
1     SB14 FLUTTER ANALYSIS                                                 /    95 INTEL LINUX NASTRAN    / OCT  4, 22 / PAGE    10
      BLOCKED CONTROLS                                                                                                              

                                                                                                                                    

          COSMIC / NASTRAN DMAP COMPILER - SOURCE LISTING                                                                           
                                                                                                                                    
                                                                                                                                    

      79  PLOT     PLTPARA,GPSETSA,ELSETSA,CASECC,BGPA,EQAERO,    ,,,,,,/PLOTX2/  
                   NSIL1/LUSETA/S,N,JUMPPLOT/S,N,PLTFLG/S,N,PFILE $               

      80  PRTMSG   PLOTX2 // $                                                    

      81  LABEL    SKPPLT $                                                       

      82  COND     ERROR2,NOEED $                                                 

      83  GI       SPLINE,USET ,CSTMA,BGPA,SIL , ,GM,GO/GTKA/NK/LUSET $           

      84  PARAM    //*ADD*/DESTRY/0/1/ $                                          

      85  AMG      AERO,ACPT/AJJL,SKJ,D1JK,D2JK/NK/NJ/S,N,DESTRY $                

      86  COND     NODJE,    NODJE $                                              

      87  INPUTT2  /D1JE,D2JE,,,/C,Y,P1=0/C,Y,P2=11/C,Y,P3=XXXXXXXX $             

      88  LABEL    NODJE $                                                        

      89  PARAM    //*ADD*/XQHHL/1/0 $                                            

      90  AMP      AJJL,SKJ,D1JK,D2JK,GTKA,PHIDH,D1JE,D2JE,USETD,AERO/QHHL,QKHL,  
                   QHJL/NOUE/S,N,XQHHL/V,Y,GUSTAERO=-1 $                          

      91  PARAM    //*MPY*/FLOOP/V,Y,NODJE=-1/0 $                                 

      92  LABEL    LOOPTOP $                                                      

      93  FA1      KHH,BHH,MHH,QHHL,CASECC,FLIST/FSAVE,KXHH,BXHH,MXHH/            
                   S,N,FLOOP/S,N,TSTART/S,N,NOCEAD $                              

      93  OUTPUT4   PHIG,,,,//0/14/3                                              

      93  OUTPUT4   MHH,,,,//0/15/3                                               

      93  OUTPUT4   BHH,,,,//0/16/3                                               

      93  OUTPUT4   KHH,,,,//0/17/3                                               

      93  OUTPUT4   QHHL,,,,//0/18/3                                              

      94  EQUIV    KXHH,PHIH/NOCEAD/BXHH,CLAMA/NOCEAD/KXHH,PHIHL/NOCEAD/BXHH,     
                   CLAMAL/NOCEAD/CASECC,CASEYY/NOCEAD $                           
1     SB14 FLUTTER ANALYSIS                                                 /    95 INTEL LINUX NASTRAN    / OCT  4, 22 / PAGE    11
      BLOCKED CONTROLS                                                                                                              

                                                                                                                                    

          COSMIC / NASTRAN DMAP COMPILER - SOURCE LISTING                                                                           
                                                                                                                                    
                                                                                                                                    

      95  COND     VDR,NOCEAD $                                                   

      96  CEAD     KXHH,BXHH,MXHH,EED,CASECC/PHIH,CLAMA,OCEIGS,/S,N,EIGVS $       

      97  COND     LBLZAP,EIGVS $                                                 

      98  LABEL    VDR $                                                          

      99  VDR      CASECC,EQDYN ,USETD,PHIH,CLAMA,,/OPHIH,/*CEIGEN*/*MODAL*/      
                   123/S,N,NOH/S,N,NOP/FMODE $                                    

     100  COND     LBL16,NOH $                                                    

     101  OFP      OPHIH,,,,,//S,N,CARDNO $                                       

     102  LABEL    LBL16 $                                                        

     103  FA2      PHIH,CLAMA,FSAVE/    PHIHL,CLAMAL,CASEYY,OVG/S,N,TSTART/       
                   C,Y,VREF=1.0/C,Y,PRINT=YES $                                   

     104  COND     CONTINUE,TSTART $                                              

     105  LABEL    LBLZAP $                                                       

     106  COND     CONTINUE,FLOOP $                                               

     107  REPT     LOOPTOP,100 $                                                  

     108  JUMP     ERROR3 $                                                       

     109  LABEL    CONTINUE $                                                     

     110  PARAML   XYCDB//*PRES*////NOXYCDB $                                     

     111  COND     NOXYOUT,NOXYCDB $                                              

     112  XYTRAN   XYCDB,OVG,,,,/XYPLTCE/*VG*/*PSET*/S,N,PFILE/S,N,CARDNO/        
                   S,N,NOXYPL $                                                   

     113  COND     NOXYOUT,NOXYPL $                                               

     114  XYPLOT   XYPLTCE// $                                                    

     115  LABEL    NOXYOUT $                                                      

     116  PARAM    //*AND*/PJUMP/NOP=-1/JUMPPLOT $                                
1     SB14 FLUTTER ANALYSIS                                                 /    95 INTEL LINUX NASTRAN    / OCT  4, 22 / PAGE    12
      BLOCKED CONTROLS                                                                                                              

                                                                                                                                    

          COSMIC / NASTRAN DMAP COMPILER - SOURCE LISTING                                                                           
                                                                                                                                    
                                                                                                                                    

     117  COND     FINIS,PJUMP $                                                  

     118  MODACC   CASEYY,CLAMAL,PHIHL,,,/CLAMAL1,CPHIH1,CASEZZ,,/*CEIGN* $       

     119  ADR      CPHIH1,CASEZZ,QKHL,CLAMAL1,SPLINE,SILA,USETA/PKF/BOV/          
                   C,Y,MACH = 0.0/*FLUTTER* $                                     

     120  DDR1     CPHIH1,PHIDH/CPHID $                                           

     121  EQUIV    CPHID ,CPHIP/NOA $                                             

     122  PURGE    QPC/NOA $                                                      

     123  COND     LBL14,NOA $                                                    

     124  SDR1     USETD,,CPHID ,,,GOD,GMD,,KFS,,/CPHIP,,QPC/1 /*DYNAMICS* $      

     125  LABEL    LBL14 $                                                        

     126  EQUIV    CPHID ,CPHIA/NOUE $                                            

     127  COND     LBLNOE,NOUE $                                                  

     128  VEC      USETA/RP/*D*/*A*/*E* $                                         

     129  PARTN    CPHID ,,RP/CPHIA,,,/1/3 $                                      

     130  LABEL    LBLNOE $                                                       

     131  MPYAD    GTKA,CPHIA,/CPHIK/1/1/0/PREC $                                 

     132  UMERGE   USETA,CPHIP,/CPHIPS/*PS*/*P*/*SA* $                            

     133  UMERGE   USETA,CPHIPS,CPHIK/CPHIPA/*PA*/*PS*/*K* $                      

     134  UMERGE   USETA,QPC,/QPAC/*PA*/*P*/*K* $                                 

     135  SDR2     CASEZZ,CSTMA,MPT,DIT,EQAERO,SILA,,,BGPA,CLAMAL1,QPAC,CPHIPA,   
                   EST,,,/,OQPAC1,OCPHIPA,OESC1,OEFC1,PCPHIPA,,/*CEIGN* $         

     136  OFP      OCPHIPA,OQPAC1,OESC1,OEFC1,,//S,N,CARDNO $                     

     137  COND     FINIS,JUMPPLOT $                                               

     138  PLOT     PLTPARA,GPSETSA,ELSETSA,CASEZZ,BGPA,EQAERO,SILGA,,PCPHIPA,,,,  
1     SB14 FLUTTER ANALYSIS                                                 /    95 INTEL LINUX NASTRAN    / OCT  4, 22 / PAGE    13
      BLOCKED CONTROLS                                                                                                              
0                                                                                                                                   
0         COSMIC / NASTRAN DMAP COMPILER - SOURCE LISTING                                                                           
                                                                                                                                    
                                                                                                                                    
                   /PLOTX3/NSIL1/LUSETA/JUMPPLOT/PLTFLG/S,N,                      
                   PFILE $                                                        

     139  PRTMSG   PLOTX3// $                                                     

     140  JUMP     FINIS $                                                        

     141  LABEL    ERROR3 $                                                       

     142  PRTPARM  //-3/*FLUTTER* $                                               

     143  LABEL    ERROR2 $                                                       

     144  PRTPARM  //-2/*FLUTTER* $                                               

     145  LABEL    ERROR1 $                                                       

     146  PRTPARM  //-1/*FLUTTER* $                                               

     147  LABEL    ERROR4 $                                                       

     148  PRTPARM  //-4/*FLUTTER* $                                               

     149  LABEL    ERROR5 $                                                       

     150  PRTPARM  //-5/*FLUTTER* $                                               

     151  LABEL    FINIS $                                                        

     152  PURGE    DUMMY/MINUS1 $                                                 

     153  END      $                                                              
1     SB14 FLUTTER ANALYSIS                                                 /    95 INTEL LINUX NASTRAN    / OCT  4, 22 / PAGE    14
      BLOCKED CONTROLS                                                                                                              
0                                                                                                                                   
0                                                                                                                                   
                                                                                                                                    
                                                                                                                                    

 *** USER POTENTIALLY FATAL MESSAGE  22,
                              POSSIBLE ERROR IN DMAP INSTRUCTION OUTPUT4    INSTRUCTION NO.  93
     DATA BLOCK NAMED PHIG     APPEARS AS INPUT BEFORE BEING DEFINED
1     SB14 FLUTTER ANALYSIS                                                 /    95 INTEL LINUX NASTRAN    / OCT  4, 22 / PAGE    15
      BLOCKED CONTROLS                                                                                                              
0                                                                                                                                   
0*** USER INFORMATION MESSAGES FROM RESEQUENCING PROCESSOR - BANDIT     (CRI= 1,  MTH= 3,  MPC= 0,  DEP=-1,  PCH=-1)

                               BEFORE RESEQUENCING - - -
                                        BANDWIDTH          420
                                        PROFILE           7459
                                        MAX WAVEFRONT       31
                                        AVG WAVEFRONT   16.145
                                        RMS WAVEFRONT   17.470
                                        RMS BANDWIDTH   53.236

                               AFTER RESEQUENCING BY GIBBS-POOLE-STOCKMEYER (GPS) ALGORITHM - - -
                                        BANDWIDTH           40
                                        PROFILE          10043
                                        MAX WAVEFRONT       36
                                        AVG WAVEFRONT   21.738
                                        RMS WAVEFRONT   23.632
                                        RMS BANDWIDTH   25.630


                                                     *** BANDIT SUMMARY ***

                                                                        BEFORE     AFTER
                                        BANDWIDTH (B)                      420       420
                                        PROFILE (P)                       7459      7459
                                        MAXIMUM WAVEFRONT (C-MAX)           31        31
                                        AVERAGE WAVEFRONT (C-AVG)       16.145    16.145
                                        RMS WAVEFRONT (C-RMS)           17.470    17.470
                                        RMS BANDWITCH (B-RMS)           53.236    53.236
                                        NUMBER OF GRID POINTS (N)                    462
                                        NUMBER OF ELEMENTS (NON-RIGID)              1317
                                        NUMBER OF RIGID ELEMENTS PROCESSED*            0
                                        NUMBER OF MPC  EQUATIONS PROCESSED*            0
                                        NUMBER OF COMPONENTS                           1
                                        MAXIMUM NODAL DEGREE                           6
                                        MINIMUM NODAL DEGREE                           1
                                        NUMBER OF UNIQUE EDGES                       650
                                        MATRIX DENSITY, PERCENT                    0.826
                                        NUMBER OF POINTS OF ZERO DEGREE                0
                                        BANDIT OPEN CORE                        13998969
                                        CRITERION*                         RMS WAVEFRONT
                                        METHOD USED*                                 GPS

                               (* THESE DEFAULT OPTIONS CAN BE OVERRIDDEN BY THE NASTRAN CARD)


                               BANDIT FINDS GRID POINT RE-SEQUENCING NOT NECESSARY
0         **NO ERRORS FOUND - EXECUTE NASTRAN PROGRAM**
0*** USER WARNING MESSAGE 2222, METHOD OF NORMALIZATION ON EIGR CARD NOT SPECIFIED. DEFAULT OF 'MASS' WILL BE USED
0*** USER INFORMATION MESSAGE 238, TURN DIAG 38 ON FOR ADDITIONAL ELEMENT PROCESSING INFORMATION

0*** USER INFORMATION MESSAGE 3113,
     EMG MODULE PROCESSING DOUBLE PRECISION BAR      ELEMENTS (ELEMENT TYPE  34) STARTING WITH ID     3010
0*** USER INFORMATION MESSAGE 3113,
     EMG MODULE PROCESSING DOUBLE PRECISION ELAS2    ELEMENTS (ELEMENT TYPE  12) STARTING WITH ID     1001
0*** USER INFORMATION MESSAGE 3113,
     EMG MODULE PROCESSING DOUBLE PRECISION CONM2    ELEMENTS (ELEMENT TYPE  30) STARTING WITH ID     1011
1     SB14 FLUTTER ANALYSIS                                                 /    95 INTEL LINUX NASTRAN    / OCT  4, 22 / PAGE    16
      BLOCKED CONTROLS                                                                                                              
0                                                                                                                                   
 
 
                           O U T P U T   F R O M   G R I D   P O I N T   W E I G H T   G E N E R A T O R
0                                                     REFERENCE POINT =     6240
 
 
                                     MO - RIGID BODY MASS MATRIX IN BASIC COORDINATE SYSTEM
                ***                                                                                             ***
                *  3.59292139D+02  0.00000000D+00  0.00000000D+00  0.00000000D+00  3.64465241D+01  8.17124146D-14 *
                *  0.00000000D+00  3.59292139D+02  0.00000000D+00 -3.64465241D+01  0.00000000D+00 -6.07936800D+00 *
                *  0.00000000D+00  0.00000000D+00  3.59292139D+02 -8.17124146D-14  6.07936800D+00  0.00000000D+00 *
                *  0.00000000D+00 -3.64465241D+01 -8.17124146D-14  2.18733133D+03  2.88657986D-15 -1.04423398D+02 *
                *  3.64465241D+01  0.00000000D+00  6.07936800D+00  3.33066907D-15  7.67473192D+02 -1.07691633D-14 *
                *  8.17124146D-14 -6.07936800D+00  0.00000000D+00 -1.04423398D+02 -1.04360964D-14  2.84960525D+03 *
                ***                                                                                             ***
                                        S - TRANSFORMATION MATRIX FOR SCALAR MASS PARTITION
                                        ***                                             ***
                                        *  1.00000000D+00  0.00000000D+00  0.00000000D+00 *
                                        *  0.00000000D+00  1.00000000D+00  0.00000000D+00 *
                                        *  0.00000000D+00  0.00000000D+00  1.00000000D+00 *
                                        ***                                             ***
                         DIRECTION
                    MASS AXIS SYSTEM (S)       MASS                 X-C.G.           Y-C.G.           Z-C.G.
                            X            3.592921389D+02      0.000000000D+00 -2.274261131D-16  1.014398039D-01
                            Y            3.592921389D+02     -1.692040359D-02  0.000000000D+00  1.014398039D-01
                            Z            3.592921389D+02     -1.692040359D-02 -2.274261131D-16  0.000000000D+00

                                                 I(S) - INERTIAS RELATIVE TO C.G. 
                                      ***                                                 ***
                                      *  2.183634197D+03 -4.269186897D-15  1.050400879D+02  *
                                      * -4.269186897D-15  7.636731984D+02  1.905805465D-14  *
                                      *  1.050400879D+02  1.905805465D-14  2.849502387D+03  *
                                      ***                                                 ***
                                                      I(Q) - PRINCIPAL INERTIAS
                                      ***                                                 ***
                                      *  2.167457233D+03                                    *
                                      *                   7.636731984D+02                   *
                                      *                                    2.865679351D+03  *
                                      ***                                                 ***
                                            Q - TRANSFORMATION MATRIX - I(Q) = QT*I(S)*Q
                                      ***                                                 ***
                                      *  9.883477153D-01  0.000000000D+00  1.522129880D-01  *
                                      *  0.000000000D+00  1.000000000D+00  0.000000000D+00  *
                                      * -1.522129880D-01  0.000000000D+00  9.883477153D-01  *
                                      ***                                                 ***
1     SB14 FLUTTER ANALYSIS                                                 /    95 INTEL LINUX NASTRAN    / OCT  4, 22 / PAGE    17
      BLOCKED CONTROLS                                                                                                              

                                                                                                                                    




0*** USER INFORMATION MESSAGE 3028      B =   11     BBAR =    3
                                        C =  152     CBAR =  172
                                        R =   13
0*** USER INFORMATION MESSAGE 3027, UNSYMMETRIC  REAL    DECOMPOSITION OF DATA BLOCK LAMA     (N =  2766)
     TIME ESTIMATE =        0 SECONDS
1     SB14 FLUTTER ANALYSIS                                                 /    95 INTEL LINUX NASTRAN    / OCT  4, 22 / PAGE    18
      BLOCKED CONTROLS                                                                                                              
0                                                                                                                                   
 
 
                              E I G E N V A L U E   A N A L Y S I S   S U M M A R Y     (INVERSE POWER METHOD)
0
0                                       NUMBER OF EIGENVALUES EXTRACTED  . . . . . .        29
0                                       NUMBER OF STARTING POINTS USED . . . . . . .        11
0                                       NUMBER OF STARTING POINT MOVES . . . . . . .         0
0                                       NUMBER OF TRIANGULAR DECOMPOSITIONS  . . . .        51
0                                       TOTAL NUMBER OF VECTOR ITERATIONS  . . . . .       324

0                                       REASON FOR TERMINATION . . . . . . . . . . .         7*

0                                       LARGEST OFF-DIAGONAL MODAL MASS TERM . . . .  0.00E+00
0                                                                              . . .         0
                                                  MODE PAIR . . . . . . . . . .
                                                                               . . .         0
0                                       NUMBER OF OFF-DIAGONAL MODAL MASS
                                             TERMS FAILING CRITERION . . . . . . . .         0

0                                       (* 1 OR MORE ROOT OUTSIDE FR.RANGE.
                                         SEE NASTRAN U.M. VOL II, SECTION 2.3.3)
1     SB14 FLUTTER ANALYSIS                                                 /    95 INTEL LINUX NASTRAN    / OCT  4, 22 / PAGE    19
      BLOCKED CONTROLS                                                                                                              
0                                                                                                                                   
0                                        FORMATTED LIST OF TABLE DATA BLOCK  EQEXIN      ( RECORD  1   )                            
        EXTERNAL     EXTERNAL GRID   INTERNAL     EXTERNAL GRID   INTERNAL     EXTERNAL GRID   INTERNAL     EXTERNAL GRID   INTERNAL
        SORT ID      OR SCALAR ID     NUMBER      OR SCALAR ID     NUMBER      OR SCALAR ID     NUMBER      OR SCALAR ID     NUMBER 
 
              1           1011             1           1021             2           1031             3           1041             4
              5           1051             5           1061             6           1062             7           1063             8
              9           1064             9           1066            10           1071            11           1081            12
             13           1091            13           1092            14           1093            15           1094            16
             17           1096            17           1101            18           1111            19           1112            20
             21           1113            21           1114            22           1116            23           1121            24
             25           1131            25           1141            26           1142            27           1143            28
             29           1144            29           1146            30           1151            31           1161            32
             33           1171            33           1172            34           1173            35           1174            36
             37           1175            37           1176            38           1181            39           1191            40
             41           1192            41           1193            42           1194            43           1196            44
             45           1201            45           1211            46           1221            47           1222            48
             49           1223            49           1224            50           1226            51           1231            52
             53           1241            53           1242            54           1243            55           1244            56
             57           1246            57           1251            58           1261            59           1271            60
             61           1272            61           1273            62           1274            63           1276            64
             65           1281            65           1291            66           1292            67           1293            68
             69           1294            69           1296            70           1301            71           1311            72
             73           1312            73           1313            74           1314            75           1316            76
             77           1321            77           1331            78           1332            79           1333            80
             81           1334            81           1336            82           1341            83           1351            84
             85           1361            85           1362            86           1363            87           1364            88
             89           1366            89           1371            90           1381            91           1382            92
             93           1383            93           1384            94           1386            95           1391            96
             97           1401            97           1402            98           1403            99           1404           100
            101           1405           101           1406           102           1411           103           1421           104
            105           1431           105           1432           106           1433           107           1434           108
            109           1436           109           1441           110           1451           111           1452           112
            113           1453           113           1454           114           1456           115           1461           116
            117           1471           117           1472           118           1473           119           1474           120
            121           1476           121           1481           122           1491           123           1501           124
            125           1502           125           1503           126           1504           127           1506           128
            129           1511           129           1521           130           1522           131           1523           132
            133           1524           133           1526           134           1531           135           1541           136
            137           2021           137           2031           138           2041           139           2051           140
            141           2061           141           2062           142           2063           143           2064           144
            145           2066           145           2071           146           2081           147           2091           148
            149           2092           149           2093           150           2094           151           2096           152
            153           2101           153           2111           154           2112           155           2113           156
            157           2114           157           2116           158           2121           159           2131           160
            161           2141           161           2142           162           2143           163           2144           164
            165           2146           165           2151           166           2161           167           2171           168
            169           2172           169           2173           170           2174           171           2175           172
            173           2176           173           2181           174           2191           175           2192           176
            177           2193           177           2194           178           2196           179           2201           180
            181           2211           181           2221           182           2222           183           2223           184
            185           2224           185           2226           186           2231           187           2241           188
            189           2242           189           2243           190           2244           191           2246           192
            193           2251           193           2261           194           2271           195           2272           196
            197           2273           197           2274           198           2276           199           2281           200
            201           2291           201           2292           202           2293           203           2294           204
            205           2296           205           2301           206           2311           207           2312           208
            209           2313           209           2314           210           2316           211           2321           212
            213           2331           213           2332           214           2333           215           2334           216
            217           2336           217           2341           218           2351           219           2361           220
1     SB14 FLUTTER ANALYSIS                                                 /    95 INTEL LINUX NASTRAN    / OCT  4, 22 / PAGE    20
      BLOCKED CONTROLS                                                                                                              
0                                                                                                                                   
0                                        FORMATTED LIST OF TABLE DATA BLOCK  EQEXIN      ( RECORD  1   )                            
        EXTERNAL     EXTERNAL GRID   INTERNAL     EXTERNAL GRID   INTERNAL     EXTERNAL GRID   INTERNAL     EXTERNAL GRID   INTERNAL
        SORT ID      OR SCALAR ID     NUMBER      OR SCALAR ID     NUMBER      OR SCALAR ID     NUMBER      OR SCALAR ID     NUMBER 
 
            221           2362           221           2363           222           2364           223           2366           224
            225           2371           225           2381           226           2382           227           2383           228
            229           2384           229           2386           230           2391           231           2401           232
            233           2402           233           2403           234           2404           235           2405           236
            237           2406           237           2411           238           2421           239           2431           240
            241           2432           241           2433           242           2434           243           2436           244
            245           2441           245           2451           246           2452           247           2453           248
            249           2454           249           2456           250           2461           251           2471           252
            253           2472           253           2473           254           2474           255           2476           256
            257           2481           257           2491           258           2501           259           2502           260
            261           2503           261           2504           262           2506           263           2511           264
            265           2521           265           2522           266           2523           267           2524           268
            269           2526           269           2531           270           2541           271           3011           272
            273           3012           273           3013           274           3014           275           3015           276
            277           3021           277           3022           278           3023           279           3024           280
            281           3031           281           3041           282           3042           283           3043           284
            285           3044           285           3045           286           3051           287           3061           288
            289           3062           289           3063           290           3064           291           3065           292
            293           4013           293           4014           294           4021           295           4022           296
            297           4023           297           4024           298           4031           299           4041           300
            301           4042           301           4043           302           4044           303           4045           304
            305           4051           305           4061           306           4062           307           4063           308
            309           4064           309           4065           310           5011           311           5012           312
            313           5013           313           5014           314           5021           315           5022           316
            317           5023           317           5024           318           5025           319           5031           320
            321           5032           321           5033           322           5034           323           5035           324
            325           5041           325           5051           326           5052           327           5053           328
            329           5054           329           6010           330           6011           331           6012           332
            333           6020           333           6030           334           6040           335           6041           336
            337           6042           337           6050           338           6060           339           6070           340
            341           6080           341           6081           342           6082           343           6090           344
            345           6100           345           6110           346           6120           347           6130           348
            349           6131           349           6132           350           6140           351           6150           352
            353           6160           353           6170           354           6171           355           6172           356
            357           6180           357           6190           358           6200           359           6210           360
            361           6211           361           6212           362           6220           363           6230           364
            365           6240           365           6241           366           6243           367           6244           368
            369           6250           369           6251           370           6252           371           6260           372
            373           6270           373           6280           374           6290           375           6300           376
            377           6310           377           6311           378           6312           379           6320           380
            381           6330           381           6340           382           6350           383           6360           384
            385           6370           385           6380           386           6390           387           6400           388
            389           6410           389           6420           390           6430           391           6431           392
            393           6432           393           6440           394           6450           395           6460           396
            397           6470           397           6480           398           6490           399           6500           400
            401           6510           401           6520           402           6521           403           6522           404
            405           6530           405           6540           406           6550           407           6560           408
            409           6570           409           6580           410           6590           411           6591           412
            413           6592           413           7010           414           7020           415           7030           416
            417           7040           417           7050           418           7060           419           7070           420
            421           7080           421           7090           422           7100           423           7110           424
            425           7120           425           7130           426           7140           427           7150           428
            429           8010           429           8020           430           8030           431           8040           432
            433           8050           433           8060           434           8070           435           8080           436
            437           8090           437           8100           438           8110           439           8120           440
1     SB14 FLUTTER ANALYSIS                                                 /    95 INTEL LINUX NASTRAN    / OCT  4, 22 / PAGE    21
      BLOCKED CONTROLS                                                                                                              
0                                                                                                                                   
0                                        FORMATTED LIST OF TABLE DATA BLOCK  EQEXIN      ( RECORD  1   )                            
        EXTERNAL     EXTERNAL GRID   INTERNAL     EXTERNAL GRID   INTERNAL     EXTERNAL GRID   INTERNAL     EXTERNAL GRID   INTERNAL
        SORT ID      OR SCALAR ID     NUMBER      OR SCALAR ID     NUMBER      OR SCALAR ID     NUMBER      OR SCALAR ID     NUMBER 
 
            441           8130           441           8140           442           8150           443           8160           444
            445           8170           445           8180           446           8190           447           9020           448
            449           9030           449           9040           450           9041           451           9050           452
            453           9051           453           9060           454           9061           455           9070           456
            457           9071           457           9080           458           9081           459           9090           460
            461           9091           461         100000           462
1     SB14 FLUTTER ANALYSIS                                                 /    95 INTEL LINUX NASTRAN    / OCT  4, 22 / PAGE    22
      BLOCKED CONTROLS                                                                                                              
0                                                                                                                                   
0                                        FORMATTED LIST OF TABLE DATA BLOCK  EQEXIN      ( RECORD  2   )                            
        EXTERNAL     EXTERNAL GRID   INTERNAL     EXTERNAL GRID   INTERNAL     EXTERNAL GRID   INTERNAL     EXTERNAL GRID   INTERNAL
        SORT ID      OR SCALAR ID   CODED SIL     OR SCALAR ID   CODED SIL     OR SCALAR ID   CODED SIL     OR SCALAR ID   CODED SIL
 
              1           1011            11           1021            71           1031           131           1041           191
              5           1051           251           1061           311           1062           371           1063           431
              9           1064           491           1066           551           1071           611           1081           671
             13           1091           731           1092           791           1093           851           1094           911
             17           1096           971           1101          1031           1111          1091           1112          1151
             21           1113          1211           1114          1271           1116          1331           1121          1391
             25           1131          1451           1141          1511           1142          1571           1143          1631
             29           1144          1691           1146          1751           1151          1811           1161          1871
             33           1171          1931           1172          1991           1173          2051           1174          2111
             37           1175          2171           1176          2231           1181          2291           1191          2351
             41           1192          2411           1193          2471           1194          2531           1196          2591
             45           1201          2651           1211          2711           1221          2771           1222          2831
             49           1223          2891           1224          2951           1226          3011           1231          3071
             53           1241          3131           1242          3191           1243          3251           1244          3311
             57           1246          3371           1251          3431           1261          3491           1271          3551
             61           1272          3611           1273          3671           1274          3731           1276          3791
             65           1281          3851           1291          3911           1292          3971           1293          4031
             69           1294          4091           1296          4151           1301          4211           1311          4271
             73           1312          4331           1313          4391           1314          4451           1316          4511
             77           1321          4571           1331          4631           1332          4691           1333          4751
             81           1334          4811           1336          4871           1341          4931           1351          4991
             85           1361          5051           1362          5111           1363          5171           1364          5231
             89           1366          5291           1371          5351           1381          5411           1382          5471
             93           1383          5531           1384          5591           1386          5651           1391          5711
             97           1401          5771           1402          5831           1403          5891           1404          5951
            101           1405          6011           1406          6071           1411          6131           1421          6191
            105           1431          6251           1432          6311           1433          6371           1434          6431
            109           1436          6491           1441          6551           1451          6611           1452          6671
            113           1453          6731           1454          6791           1456          6851           1461          6911
            117           1471          6971           1472          7031           1473          7091           1474          7151
            121           1476          7211           1481          7271           1491          7331           1501          7391
            125           1502          7451           1503          7511           1504          7571           1506          7631
            129           1511          7691           1521          7751           1522          7811           1523          7871
            133           1524          7931           1526          7991           1531          8051           1541          8111
            137           2021          8171           2031          8231           2041          8291           2051          8351
            141           2061          8411           2062          8471           2063          8531           2064          8591
            145           2066          8651           2071          8711           2081          8771           2091          8831
            149           2092          8891           2093          8951           2094          9011           2096          9071
            153           2101          9131           2111          9191           2112          9251           2113          9311
            157           2114          9371           2116          9431           2121          9491           2131          9551
            161           2141          9611           2142          9671           2143          9731           2144          9791
            165           2146          9851           2151          9911           2161          9971           2171         10031
            169           2172         10091           2173         10151           2174         10211           2175         10271
            173           2176         10331           2181         10391           2191         10451           2192         10511
            177           2193         10571           2194         10631           2196         10691           2201         10751
            181           2211         10811           2221         10871           2222         10931           2223         10991
            185           2224         11051           2226         11111           2231         11171           2241         11231
            189           2242         11291           2243         11351           2244         11411           2246         11471
            193           2251         11531           2261         11591           2271         11651           2272         11711
            197           2273         11771           2274         11831           2276         11891           2281         11951
            201           2291         12011           2292         12071           2293         12131           2294         12191
            205           2296         12251           2301         12311           2311         12371           2312         12431
            209           2313         12491           2314         12551           2316         12611           2321         12671
            213           2331         12731           2332         12791           2333         12851           2334         12911
            217           2336         12971           2341         13031           2351         13091           2361         13151
1     SB14 FLUTTER ANALYSIS                                                 /    95 INTEL LINUX NASTRAN    / OCT  4, 22 / PAGE    23
      BLOCKED CONTROLS                                                                                                              
0                                                                                                                                   
0                                        FORMATTED LIST OF TABLE DATA BLOCK  EQEXIN      ( RECORD  2   )                            
        EXTERNAL     EXTERNAL GRID   INTERNAL     EXTERNAL GRID   INTERNAL     EXTERNAL GRID   INTERNAL     EXTERNAL GRID   INTERNAL
        SORT ID      OR SCALAR ID   CODED SIL     OR SCALAR ID   CODED SIL     OR SCALAR ID   CODED SIL     OR SCALAR ID   CODED SIL
 
            221           2362         13211           2363         13271           2364         13331           2366         13391
            225           2371         13451           2381         13511           2382         13571           2383         13631
            229           2384         13691           2386         13751           2391         13811           2401         13871
            233           2402         13931           2403         13991           2404         14051           2405         14111
            237           2406         14171           2411         14231           2421         14291           2431         14351
            241           2432         14411           2433         14471           2434         14531           2436         14591
            245           2441         14651           2451         14711           2452         14771           2453         14831
            249           2454         14891           2456         14951           2461         15011           2471         15071
            253           2472         15131           2473         15191           2474         15251           2476         15311
            257           2481         15371           2491         15431           2501         15491           2502         15551
            261           2503         15611           2504         15671           2506         15731           2511         15791
            265           2521         15851           2522         15911           2523         15971           2524         16031
            269           2526         16091           2531         16151           2541         16211           3011         16271
            273           3012         16331           3013         16391           3014         16451           3015         16511
            277           3021         16571           3022         16631           3023         16691           3024         16751
            281           3031         16811           3041         16871           3042         16931           3043         16991
            285           3044         17051           3045         17111           3051         17171           3061         17231
            289           3062         17291           3063         17351           3064         17411           3065         17471
            293           4013         17531           4014         17591           4021         17651           4022         17711
            297           4023         17771           4024         17831           4031         17891           4041         17951
            301           4042         18011           4043         18071           4044         18131           4045         18191
            305           4051         18251           4061         18311           4062         18371           4063         18431
            309           4064         18491           4065         18551           5011         18611           5012         18671
            313           5013         18731           5014         18791           5021         18851           5022         18911
            317           5023         18971           5024         19031           5025         19091           5031         19151
            321           5032         19211           5033         19271           5034         19331           5035         19391
            325           5041         19451           5051         19511           5052         19571           5053         19631
            329           5054         19691           6010         19751           6011         19811           6012         19871
            333           6020         19931           6030         19991           6040         20051           6041         20111
            337           6042         20171           6050         20231           6060         20291           6070         20351
            341           6080         20411           6081         20471           6082         20531           6090         20591
            345           6100         20651           6110         20711           6120         20771           6130         20831
            349           6131         20891           6132         20951           6140         21011           6150         21071
            353           6160         21131           6170         21191           6171         21251           6172         21311
            357           6180         21371           6190         21431           6200         21491           6210         21551
            361           6211         21611           6212         21671           6220         21731           6230         21791
            365           6240         21851           6241         21911           6243         21971           6244         22031
            369           6250         22091           6251         22151           6252         22211           6260         22271
            373           6270         22331           6280         22391           6290         22451           6300         22511
            377           6310         22571           6311         22631           6312         22691           6320         22751
            381           6330         22811           6340         22871           6350         22931           6360         22991
            385           6370         23051           6380         23111           6390         23171           6400         23231
            389           6410         23291           6420         23351           6430         23411           6431         23471
            393           6432         23531           6440         23591           6450         23651           6460         23711
            397           6470         23771           6480         23831           6490         23891           6500         23951
            401           6510         24011           6520         24071           6521         24131           6522         24191
            405           6530         24251           6540         24311           6550         24371           6560         24431
            409           6570         24491           6580         24551           6590         24611           6591         24671
            413           6592         24731           7010         24791           7020         24851           7030         24911
            417           7040         24971           7050         25031           7060         25091           7070         25151
            421           7080         25211           7090         25271           7100         25331           7110         25391
            425           7120         25451           7130         25511           7140         25571           7150         25631
            429           8010         25691           8020         25751           8030         25811           8040         25871
            433           8050         25931           8060         25991           8070         26051           8080         26111
            437           8090         26171           8100         26231           8110         26291           8120         26351
1     SB14 FLUTTER ANALYSIS                                                 /    95 INTEL LINUX NASTRAN    / OCT  4, 22 / PAGE    24
      BLOCKED CONTROLS                                                                                                              
0                                                                                                                                   
0                                        FORMATTED LIST OF TABLE DATA BLOCK  EQEXIN      ( RECORD  2   )                            
        EXTERNAL     EXTERNAL GRID   INTERNAL     EXTERNAL GRID   INTERNAL     EXTERNAL GRID   INTERNAL     EXTERNAL GRID   INTERNAL
        SORT ID      OR SCALAR ID   CODED SIL     OR SCALAR ID   CODED SIL     OR SCALAR ID   CODED SIL     OR SCALAR ID   CODED SIL
 
            441           8130         26411           8140         26471           8150         26531           8160         26591
            445           8170         26651           8180         26711           8190         26771           9020         26831
            449           9030         26891           9040         26951           9041         27011           9050         27071
            453           9051         27131           9060         27191           9061         27251           9070         27311
            457           9071         27371           9080         27431           9081         27491           9090         27551
            461           9091         27611         100000         27671
0*** TRAILER =                462                 0                 0                 0                 0                 0
1     SB14 FLUTTER ANALYSIS                                                 /    95 INTEL LINUX NASTRAN    / OCT  4, 22 / PAGE    25
      BLOCKED CONTROLS                                                                                                              
0                                                                                                                                   
 
                                              R E A L   E I G E N V A L U E S

   MODE    EXTRACTION       EIGENVALUE            RADIAN              CYCLIC           GENERALIZED         GENERALIZED
[...]

       POINT =    7     MACH NUMBER =  0.0000     DENSITY RATIO =  1.2250E+00     METHOD = PK  


       KFREQ            1./KFREQ         VELOCITY            DAMPING         FREQUENCY            COMPLEX   EIGENVALUE
        0.1611       6.2088070E+00     1.0799136E+02    -8.2376879E-01     2.1361449E+00    -5.5282278E+00     1.3421795E+01
1     SB14 FLUTTER ANALYSIS                                                 /    95 INTEL LINUX NASTRAN    / OCT  4, 22 / PAGE    65
      BLOCKED CONTROLS                                                                                                              
0                                                                                                                                   
0                                                       FLUTTER  SUMMARY

       POINT =    8     MACH NUMBER =  0.0000     DENSITY RATIO =  1.2250E+00     METHOD = PK  


       KFREQ            1./KFREQ         VELOCITY            DAMPING         FREQUENCY            COMPLEX   EIGENVALUE
        0.1949       5.1311460E+00     1.0799136E+02    -1.1102387E-01     2.5847855E+00    -9.0155196E-01     1.6240686E+01
1     SB14 FLUTTER ANALYSIS                                                 /    95 INTEL LINUX NASTRAN    / OCT  4, 22 / PAGE    66
      BLOCKED CONTROLS                                                                                                              
0                                                                                                                                   
0                                                       FLUTTER  SUMMARY

       POINT =    9     MACH NUMBER =  0.0000     DENSITY RATIO =  1.2250E+00     METHOD = PK  


       KFREQ            1./KFREQ         VELOCITY            DAMPING         FREQUENCY            COMPLEX   EIGENVALUE
        0.2665       3.7527814E+00     1.0799136E+02    -2.7810863E-01     3.5341549E+00    -3.0878055E+00     2.2205751E+01
1     SB14 FLUTTER ANALYSIS                                                 /    95 INTEL LINUX NASTRAN    / OCT  4, 22 / PAGE    67
      BLOCKED CONTROLS                                                                                                              
0                                                                                                                                   
0                                                       FLUTTER  SUMMARY

       POINT =   10     MACH NUMBER =  0.0000     DENSITY RATIO =  1.2250E+00     METHOD = PK  


       KFREQ            1./KFREQ         VELOCITY            DAMPING         FREQUENCY            COMPLEX   EIGENVALUE
        0.2780       3.5965011E+00     1.0799136E+02    -5.1970708E-01     3.6877263E+00    -6.0209804E+00     2.3170668E+01
1     SB14 FLUTTER ANALYSIS                                                 /    95 INTEL LINUX NASTRAN    / OCT  4, 22 / PAGE    68
      BLOCKED CONTROLS                                                                                                              
0                                                                                                                                   
0                                                       FLUTTER  SUMMARY

       POINT =   11     MACH NUMBER =  0.0000     DENSITY RATIO =  1.2250E+00     METHOD = PK  


       KFREQ            1./KFREQ         VELOCITY            DAMPING         FREQUENCY            COMPLEX   EIGENVALUE
        0.2783       3.5934684E+00     1.0799136E+02     3.0125972E-02     3.6908386E+00     3.4931400E-01     2.3190224E+01
1     SB14 FLUTTER ANALYSIS                                                 /    95 INTEL LINUX NASTRAN    / OCT  4, 22 / PAGE    69
      BLOCKED CONTROLS                                                                                                              
0                                                                                                                                   
0                                                       FLUTTER  SUMMARY

       POINT =   12     MACH NUMBER =  0.0000     DENSITY RATIO =  1.2250E+00     METHOD = PK  


       KFREQ            1./KFREQ         VELOCITY            DAMPING         FREQUENCY            COMPLEX   EIGENVALUE
        0.3683       2.7155039E+00     1.0799136E+02    -1.4650214E-03     4.8841438E+00    -2.2479273E-02     3.0687981E+01
1     SB14 FLUTTER ANALYSIS                                                 /    95 INTEL LINUX NASTRAN    / OCT  4, 22 / PAGE    70
      BLOCKED CONTROLS                                                                                                              
0                                                                                                                                   
0                                                       FLUTTER  SUMMARY

       POINT =   13     MACH NUMBER =  0.0000     DENSITY RATIO =  1.2250E+00     METHOD = PK  


       KFREQ            1./KFREQ         VELOCITY            DAMPING         FREQUENCY            COMPLEX   EIGENVALUE
        0.3926       2.5471468E+00     1.0799136E+02    -2.1497326E-01     5.2069674E+00    -3.5165694E+00     3.2716343E+01
1     SB14 FLUTTER ANALYSIS                                                 /    95 INTEL LINUX NASTRAN    / OCT  4, 22 / PAGE    71
      BLOCKED CONTROLS                                                                                                              
0                                                                                                                                   
0                                                       FLUTTER  SUMMARY

       POINT =   14     MACH NUMBER =  0.0000     DENSITY RATIO =  1.2250E+00     METHOD = PK  


       KFREQ            1./KFREQ         VELOCITY            DAMPING         FREQUENCY            COMPLEX   EIGENVALUE
        0.5278       1.8947647E+00     1.0799136E+02    -2.4297971E-01     6.9997678E+00    -5.3432255E+00     4.3980839E+01
1     SB14 FLUTTER ANALYSIS                                                 /    95 INTEL LINUX NASTRAN    / OCT  4, 22 / PAGE    72
      BLOCKED CONTROLS                                                                                                              
0                                                                                                                                   
0                                                       FLUTTER  SUMMARY

       POINT =   15     MACH NUMBER =  0.0000     DENSITY RATIO =  1.2250E+00     METHOD = PK  


       KFREQ            1./KFREQ         VELOCITY            DAMPING         FREQUENCY            COMPLEX   EIGENVALUE
        0.5510       1.8150393E+00     1.0799136E+02    -1.2867524E-01     7.3072309E+00    -2.9539132E+00     4.5912689E+01
1     SB14 FLUTTER ANALYSIS                                                 /    95 INTEL LINUX NASTRAN    / OCT  4, 22 / PAGE    73
      BLOCKED CONTROLS                                                                                                              
0                                                                                                                                   
0                                                       FLUTTER  SUMMARY

       POINT =   16     MACH NUMBER =  0.0000     DENSITY RATIO =  1.2250E+00     METHOD = PK  


       KFREQ            1./KFREQ         VELOCITY            DAMPING         FREQUENCY            COMPLEX   EIGENVALUE
        0.6724       1.4871689E+00     1.0799136E+02    -3.4701802E-02     8.9182281E+00    -9.7225571E-01     5.6034882E+01
1     SB14 FLUTTER ANALYSIS                                                 /    95 INTEL LINUX NASTRAN    / OCT  4, 22 / PAGE    74
      BLOCKED CONTROLS                                                                                                              
0                                                                                                                                   
0                                                       FLUTTER  SUMMARY

       POINT =   17     MACH NUMBER =  0.0000     DENSITY RATIO =  1.2250E+00     METHOD = PK  


       KFREQ            1./KFREQ         VELOCITY            DAMPING         FREQUENCY            COMPLEX   EIGENVALUE
        0.8220       1.2166023E+00     1.0799136E+02    -1.1866882E-02     1.0901600E+01    -4.0642154E-01     6.8496773E+01
1     SB14 FLUTTER ANALYSIS                                                 /    95 INTEL LINUX NASTRAN    / OCT  4, 22 / PAGE    75
      BLOCKED CONTROLS                                                                                                              
0                                                                                                                                   
0                                                       FLUTTER  SUMMARY

       POINT =   18     MACH NUMBER =  0.0000     DENSITY RATIO =  1.2250E+00     METHOD = PK  


       KFREQ            1./KFREQ         VELOCITY            DAMPING         FREQUENCY            COMPLEX   EIGENVALUE
        0.9713       1.0295198E+00     1.0799136E+02    -2.1812418E-02     1.2882619E+01    -8.8279092E-01     8.0943886E+01
1     SB14 FLUTTER ANALYSIS                                                 /    95 INTEL LINUX NASTRAN    / OCT  4, 22 / PAGE    76
      BLOCKED CONTROLS                                                                                                              
0                                                                                                                                   
0                                                       FLUTTER  SUMMARY

       POINT =   19     MACH NUMBER =  0.0000     DENSITY RATIO =  1.2250E+00     METHOD = PK  


       KFREQ            1./KFREQ         VELOCITY            DAMPING         FREQUENCY            COMPLEX   EIGENVALUE
        0.9839       1.0163347E+00     1.0799136E+02    -4.9071781E-02     1.3049748E+01    -2.0117955E+00     8.1993988E+01
1     SB14 FLUTTER ANALYSIS                                                 /    95 INTEL LINUX NASTRAN    / OCT  4, 22 / PAGE    77
      BLOCKED CONTROLS                                                                                                              
0                                                                                                                                   
0                                                       FLUTTER  SUMMARY

       POINT =   20     MACH NUMBER =  0.0000     DENSITY RATIO =  1.2250E+00     METHOD = PK  


       KFREQ            1./KFREQ         VELOCITY            DAMPING         FREQUENCY            COMPLEX   EIGENVALUE
        1.0974       9.1121250E-01     1.0799136E+02    -3.4652773E-02     1.4555233E+01    -1.5845541E+00     9.1453232E+01
1     SB14 FLUTTER ANALYSIS                                                 /    95 INTEL LINUX NASTRAN    / OCT  4, 22 / PAGE    78
      BLOCKED CONTROLS                                                                                                              
0                                                                                                                                   
0                                                       FLUTTER  SUMMARY

       POINT =   21     MACH NUMBER =  0.0000     DENSITY RATIO =  1.2250E+00     METHOD = PK  


       KFREQ            1./KFREQ         VELOCITY            DAMPING         FREQUENCY            COMPLEX   EIGENVALUE
        1.2079       8.2786345E-01     1.0799136E+02    -6.2846534E-02     1.6020651E+01    -3.1630886E+00     1.0066072E+02
1     SB14 FLUTTER ANALYSIS                                                 /    95 INTEL LINUX NASTRAN    / OCT  4, 22 / PAGE    79
      BLOCKED CONTROLS                                                                                                              
0                                                                                                                                   
0                                                       FLUTTER  SUMMARY

       POINT =   22     MACH NUMBER =  0.0000     DENSITY RATIO =  1.2250E+00     METHOD = PK  


       KFREQ            1./KFREQ         VELOCITY            DAMPING         FREQUENCY            COMPLEX   EIGENVALUE
        1.2302       8.1286836E-01     1.0799136E+02    -9.6980169E-02     1.6316185E+01    -4.9710884E+00     1.0251762E+02
1     SB14 FLUTTER ANALYSIS                                                 /    95 INTEL LINUX NASTRAN    / OCT  4, 22 / PAGE    80
      BLOCKED CONTROLS                                                                                                              
0                                                                                                                                   
0                                                       FLUTTER  SUMMARY

       POINT =   23     MACH NUMBER =  0.0000     DENSITY RATIO =  1.2250E+00     METHOD = PK  


       KFREQ            1./KFREQ         VELOCITY            DAMPING         FREQUENCY            COMPLEX   EIGENVALUE
        1.3781       7.2562110E-01     1.0799136E+02    -3.1823304E-04     1.8278011E+01    -1.8273599E-02     1.1484414E+02
1     SB14 FLUTTER ANALYSIS                                                 /    95 INTEL LINUX NASTRAN    / OCT  4, 22 / PAGE    81
      BLOCKED CONTROLS                                                                                                              
0                                                                                                                                   
0                                                       FLUTTER  SUMMARY

       POINT =   24     MACH NUMBER =  0.0000     DENSITY RATIO =  1.2250E+00     METHOD = PK  


       KFREQ            1./KFREQ         VELOCITY            DAMPING         FREQUENCY            COMPLEX   EIGENVALUE
        1.4739       6.7849433E-01     1.0799136E+02    -1.4928388E-02     1.9547565E+01    -9.1675961E-01     1.2282098E+02
1     SB14 FLUTTER ANALYSIS                                                 /    95 INTEL LINUX NASTRAN    / OCT  4, 22 / PAGE    82
      BLOCKED CONTROLS                                                                                                              
0                                                                                                                                   
0                                                       FLUTTER  SUMMARY

       POINT =   25     MACH NUMBER =  0.0000     DENSITY RATIO =  1.2250E+00     METHOD = PK  


       KFREQ            1./KFREQ         VELOCITY            DAMPING         FREQUENCY            COMPLEX   EIGENVALUE
        1.5406       6.4911222E-01     1.0799136E+02    -9.4199274E-03     2.0432384E+01    -6.0466731E-01     1.2838046E+02
1     SB14 FLUTTER ANALYSIS                                                 /    95 INTEL LINUX NASTRAN    / OCT  4, 22 / PAGE    83
      BLOCKED CONTROLS                                                                                                              
0                                                                                                                                   
0                                                       FLUTTER  SUMMARY

       POINT =   26     MACH NUMBER =  0.0000     DENSITY RATIO =  1.2250E+00     METHOD = PK  


       KFREQ            1./KFREQ         VELOCITY            DAMPING         FREQUENCY            COMPLEX   EIGENVALUE
        1.9280       5.1866764E-01     1.0799136E+02    -1.7370218E-02     2.5571117E+01    -1.3954197E+00     1.6066808E+02
1     SB14 FLUTTER ANALYSIS                                                 /    95 INTEL LINUX NASTRAN    / OCT  4, 22 / PAGE    84
      BLOCKED CONTROLS                                                                                                              
0                                                                                                                                   
0                                                       FLUTTER  SUMMARY

       POINT =   27     MACH NUMBER =  0.0000     DENSITY RATIO =  1.2250E+00     METHOD = PK  


       KFREQ            1./KFREQ         VELOCITY            DAMPING         FREQUENCY            COMPLEX   EIGENVALUE
        1.9811       5.0475937E-01     1.0799136E+02    -2.1293001E-02     2.6275711E+01    -1.7576858E+00     1.6509517E+02
1     SB14 FLUTTER ANALYSIS                                                 /    95 INTEL LINUX NASTRAN    / OCT  4, 22 / PAGE    85
      BLOCKED CONTROLS                                                                                                              
0                                                                                                                                   
0                                                       FLUTTER  SUMMARY

       POINT =   28     MACH NUMBER =  0.0000     DENSITY RATIO =  1.2250E+00     METHOD = PK  


       KFREQ            1./KFREQ         VELOCITY            DAMPING         FREQUENCY            COMPLEX   EIGENVALUE
        2.0171       4.9576035E-01     1.0799136E+02    -2.6293224E-02     2.6752668E+01    -2.2098401E+00     1.6809198E+02
1     SB14 FLUTTER ANALYSIS                                                 /    95 INTEL LINUX NASTRAN    / OCT  4, 22 / PAGE    86
      BLOCKED CONTROLS                                                                                                              
0                                                                                                                                   
0                                                       FLUTTER  SUMMARY

       POINT =   29     MACH NUMBER =  0.0000     DENSITY RATIO =  1.2250E+00     METHOD = PK  


       KFREQ            1./KFREQ         VELOCITY            DAMPING         FREQUENCY            COMPLEX   EIGENVALUE
        2.2921       4.3628827E-01     1.0799136E+02    -2.2347765E-02     3.0399422E+01    -2.1342697E+00     1.9100520E+02
0*** SYSTEM WARNING MESSAGE 3022
+                                 (SEE PROG. MANUAL SEC. 4.9.7, OR USERS' MANUAL P. 6.5-3)
     DATA BLOCK PLTPARA  MAY BE REQUIRED AS INPUT AND IS NOT OUTPUT BY A PREVIOUS MODULE IN THE CURRENT DMAP ROUTE.
0*** SYSTEM WARNING MESSAGE 3022
+                                 (SEE PROG. MANUAL SEC. 4.9.7, OR USERS' MANUAL P. 6.5-3)
     DATA BLOCK GPSETSA  MAY BE REQUIRED AS INPUT AND IS NOT OUTPUT BY A PREVIOUS MODULE IN THE CURRENT DMAP ROUTE.
0*** SYSTEM WARNING MESSAGE 3022
+                                 (SEE PROG. MANUAL SEC. 4.9.7, OR USERS' MANUAL P. 6.5-3)
     DATA BLOCK ELSETSA  MAY BE REQUIRED AS INPUT AND IS NOT OUTPUT BY A PREVIOUS MODULE IN THE CURRENT DMAP ROUTE.
0*** SYSTEM WARNING MESSAGE 3022
+                                 (SEE PROG. MANUAL SEC. 4.9.7, OR USERS' MANUAL P. 6.5-3)
     DATA BLOCK PLTPARA  MAY BE REQUIRED AS INPUT AND IS NOT OUTPUT BY A PREVIOUS MODULE IN THE CURRENT DMAP ROUTE.
0*** SYSTEM WARNING MESSAGE 3022
+                                 (SEE PROG. MANUAL SEC. 4.9.7, OR USERS' MANUAL P. 6.5-3)
     DATA BLOCK GPSETSA  MAY BE REQUIRED AS INPUT AND IS NOT OUTPUT BY A PREVIOUS MODULE IN THE CURRENT DMAP ROUTE.
0*** SYSTEM WARNING MESSAGE 3022
+                                 (SEE PROG. MANUAL SEC. 4.9.7, OR USERS' MANUAL P. 6.5-3)
     DATA BLOCK ELSETSA  MAY BE REQUIRED AS INPUT AND IS NOT OUTPUT BY A PREVIOUS MODULE IN THE CURRENT DMAP ROUTE.




                                        * * * END OF JOB * * *
1
 JOB TITLE =  SB14 FLUTTER ANALYSIS                                              
 DATE: 10/ 4/22
 END TIME:  0:12:15
 TOTAL WALL CLOCK TIME      0 SEC.
 
