ID SB14,NASTRAN
$
$SOL   MODES                                                                      
$TIME  10                                                                        
$DIAG 14,18
$ALTER 49
$OUTPUT4   KGG,,,,//0/14/3 
$OUTPUT4   KGG,,,,//0/-16/3 
$OUTPUT4   MGG,,,,//0/15/3 
$ENDALTER
$
APP   AERO                                                                      
SOL   10                                                                      
TIME  10                                                                        
DIAG  14,18  
$ALTER 90
$OUTPUT4   QHHL,,,,//0/14/3
$OUTPUT4   KHH ,,,,//0/15/3
$OUTPUT4   MHH ,,,,//0/16/3
$OUTPUT4   BHH ,,,,//0/17/3
$ALTER 131
$OUTPUT4   GTKA ,,,,//0/14/3
$OUTPUT4   CPHIA,,,,//0/15/3
$OUTPUT4   CPHIK,,,,//0/16/3
$ENDALTER
$
$SOL   145                                                                      
$DIAG  8  
$
$-----------------------------------------------------------------------
$ DMAP Export MHH BHH KHH QHH
$
$COMPILE FLUTTER SOUIN=MSCSOU LIST REF$
$ALTER 'TYPE PARM,,I,N,'$
$TYPE PARM, ,I,N,IUN=222 $
$$
$ALTER 'LPRINT='$
$IUN = IUN +1 $
$OUTPUT4 MHH///IUN/3//9$
$IUN = IUN +1 $
$OUTPUT4 BHH///IUN/3//9$
$IUN = IUN +1 $
$OUTPUT4 KHH///IUN/3//9$
$
$
$ALTER 'CNTR=CNTR+1'(,-1)
$PRTPARM /// 'KBAR'$
$IUN = IUN +1 $
$OUTPUT4 QHH///IUN/3//9$
$ENDALTER
$
$------------------------------------------------------------------------
CEND
$
TITLE = SB14 FLUTTER ANALYSIS
SUBTITLE = FREE CONTROLS 
ECHO = PUNCH
$LINES = 999999
SUBCASE 10
  SDAMP  = 30        $ Modal Damping
  METHOD = 10
  FMETHOD = 30
  SPC = 100
  DISPLACEMENT = ALL
  GPFORCE = ALL
$ APRESSURE  = ALL
  AEROF   = ALL
$
$...1...|...2...|...3...|...4...|...5...|...6...|...7...|...8...|...9...|..10...| 
$
BEGIN BULK
$
$ CONTROLS BLOCKED
CELAS2  700034  1.E+09  6080    4       7080    4       0.
CELAS2  700035  1.E+09  6080    5       7080    5       0.
CELAS2  800016  1.E+09  6040    6       8010    6       0.
$
EIGR    10      UINV    .0      30.     100                                      
$EIGRL, 10, 0., 30., , , , , MASS
$
PARAM   GRDPNT  6240
$PARAM   POST     -1
$PARAM   OPPHIPA  1
$PARAM   ASETOUT  1                                                               
$PARAM   COUPMASS 1                                                               
$
$ Modal Damping
TABDMP1 30                                                              +TAB1     
+TAB1   0.      0.015   1000.   0.015   ENDT
$...1...|...2...|...3...|...4...|...5...|...6...|...7...|...8...|...9...|..10...| 
$                                                                       $
$                     *FLUTTER SOLUTION PARAMETERS *                    $
$                                                                       $
$        THE FLUTTER ENTRY DEFINES THE METHOD OF SOLUTION, IDENTIFIES   $
$        THE FLFACT ENTRIES THAT FOLL0W, SPECIFIES THE INTERPOLATION    $
$        METHOD, THE NUMBER OF ROOTS DESIRED IN THE OUTPUT AND THE      $
$        CRITERION FOR CONVERGENCE (DEFAULT IS 10-3).                   $
$                                                                       $
$       SID     METHOD  DENS    MACH    VEL     IMETH   NVALUE  EPS     $
FLUTTER 30      PK      1       2       3       L       310     1.E-9
$                                                                       $
$        FLFACT ENTRIES ARE USED TO SPECIFY DENSITY RATIOS, MACH NO.S   $
$        AND REDUCED FREQUENCIES/VELOCITIES FOR FLUTTER ANALYSES.       $
$        NEGATIVE VELOCITIES ARE SIGNALS TO COMPUTE AND PRINT EIGEN-    $
$        VECTORS.                                                       $
$                                                                       $
$       SID     F1      F2      F3      F4      F5      F6      F7      $
FLFACT  1       1.225                                                   DENSITY
FLFACT  2       0.0                                                     MACH NO
FLFACT  3       1.0     THRU    101.0   101     51.0                    VELOCITY
FLFACT  4       1.0     THRU    101.0   201     51.0                    VELOCITY
FLFACT  5       1.0     THRU    101.0    51     51.0                    VELOCITY
FLFACT  6       20.0    30.0    40.0                                    VELOCITY
$                                                                       $
$        THE PARAM,LMODES,N ENTRY SPECIFIES THAT N MODES ARE TO BE      $
$        USED IN THE FLUTTER ANALYSIS.                                  $
$                                                                       $
PARAM   LMODES  30
$                                                                       $
$        THE PARAM,VREF,C ENTRY SPECIFIES A CONVERSION FACTOR TO BE     $
$        USED TO CONVERT THE DIMENSIONS OF THE OUTPUT VELOCITIES BY     $
$        DIVIDING BY C                                                  $
$        CONVERSION M/S to KM/H                                         $
PARAM   VREF    0.2778
$
$...1...|...2...|...3...|...4...|...5...|...6...|...7...|...8...|...9...|..10...| 
$
$ BEAM MODEL
$
CBAR    3010    3010    3011    3021    0.      0.      1.
CBAR    3015    99999   3015    3045    0.      0.      1.
CBAR    3020    3020    3021    3031    0.      0.      1.
CBAR    3030    3020    3031    3041    0.      0.      1.
CBAR    3040    3030    3041    3051    0.      0.      1.
CBAR    3045    99999   3045    3065    0.      0.      1.
CBAR    3050    3030    3051    3061    0.      0.      1.
CBAR    3060    9999    3011    3012    0.      0.      1.
CBAR    3061    9999    3011    3015    0.      0.      1.
CBAR    3070    9999    3021    3022    0.      0.      1.
CBAR    3080    9999    3041    3042    0.      0.      1.
CBAR    3081    9999    3041    3045    0.      0.      1.
CBAR    3090    9999    3061    3062    0.      0.      1.
CBAR    3091    9999    3061    3065    0.      0.      1.
CBAR    3100    3060    3013    3023    0.      0.      1.
CBAR    3110    3060    3023    3043    0.      0.      1.
CBAR    3115    99999   3014    3024    0.      0.      1.
CBAR    3120    3060    3043    3063    0.      0.      1.
CBAR    3125    99999   3024    3044    0.      0.      1.
CBAR    3130    9999    3013    3014    0.      0.      1.
$ ... 618 like lines cut
CELAS2  1001    100.    6240    1       100000  1
CELAS2  1002    200.    6240    2       100000  2
CELAS2  1003    100.    6240    3       100000  3
CELAS2  1004    400.    6240    4       100000  4
CELAS2  1005    500.    6240    5       100000  5
CELAS2  1006    600.    6240    6       100000  6
CELAS2  3004    1000000.3013    5       4013    5       0.
CELAS2  100061  1000000.1062    1       1063    1       0.
CELAS2  100062  1000000.1062    2       1063    2       0.
CELAS2  100063  1000000.1062    3       1063    3       0.
CELAS2  100064  1000000.1062    4       1063    4       0.
CELAS2  100066  1000000.1062    6       1063    6       0.
CELAS2  100091  1000000.1092    1       1093    1       0.
CELAS2  100092  1000000.1092    2       1093    2       0.
CELAS2  100093  1000000.1092    3       1093    3       0.
CELAS2  100094  1000000.1092    4       1093    4       0.
CELAS2  100096  1000000.1092    6       1093    6       0.
CELAS2  100111  1000000.1112    1       1113    1       0.
CELAS2  100112  1000000.1112    2       1113    2       0.
CELAS2  100113  1000000.1112    3       1113    3       0.
$ ... 87 like lines cut
CELAS2  110001  1.E+09  6243    1       1021    1       0.
CELAS2  110002  1.E+09  6243    2       1021    2       0.
CELAS2  110003  1.E+09  6243    3       1021    3       0.
CELAS2  110005  1000000.6243    5       1021    5       0.
CELAS2  110006  1000000.6243    6       1021    6       0.
CELAS2  200061  1000000.2062    1       2063    1       0.
CELAS2  200062  1000000.2062    2       2063    2       0.
CELAS2  200063  1000000.2062    3       2063    3       0.
CELAS2  200064  1000000.2062    4       2063    4       0.
CELAS2  200066  1000000.2062    6       2063    6       0.
CELAS2  200091  1000000.2092    1       2093    1       0.
CELAS2  200092  1000000.2092    2       2093    2       0.
CELAS2  200093  1000000.2092    3       2093    3       0.
CELAS2  200094  1000000.2092    4       2093    4       0.
CELAS2  200096  1000000.2092    6       2093    6       0.
CELAS2  200111  1000000.2112    1       2113    1       0.
CELAS2  200112  1000000.2112    2       2113    2       0.
CELAS2  200113  1000000.2112    3       2113    3       0.
CELAS2  200114  1000000.2112    4       2113    4       0.
CELAS2  200116  1000000.2112    6       2113    6       0.
CELAS2  200141  1000000.2142    1       2143    1       0.
CELAS2  200142  1000000.2142    2       2143    2       0.
CELAS2  200143  1000000.2142    3       2143    3       0.
$ ... 82 like lines cut
CELAS2  210001  1.E+09  6244    1       2021    1       0.
CELAS2  210002  1.E+09  6244    2       2021    2       0.
CELAS2  210003  1.E+09  6244    3       2021    3       0.
CELAS2  210005  1000000.6244    5       2021    5       0.
CELAS2  210006  1000000.6244    6       2021    6       0.
CELAS2  300011  1000000.3012    1       3013    1       0.
CELAS2  300012  1000000.3012    2       3013    2       0.
CELAS2  300013  1000000.3012    3       3013    3       0.
CELAS2  300014  1000000.3012    4       3013    4       0.
CELAS2  300016  1000000.3012    6       3013    6       0.
CELAS2  300021  1000000.3022    1       3023    1       0.
CELAS2  300022  1000000.3022    2       3023    2       0.
CELAS2  300023  1000000.3022    3       3023    3       0.
CELAS2  300024  1000000.3022    4       3023    4       0.
CELAS2  300026  1000000.3022    6       3023    6       0.
CELAS2  300031  1000000.3042    1       3043    1       0.
CELAS2  300032  1000000.3042    2       3043    2       0.
CELAS2  300033  1000000.3042    3       3043    3       0.
CELAS2  300034  1000000.3042    4       3043    4       0.
CELAS2  300036  1000000.3042    6       3043    6       0.
CELAS2  300041  1000000.3062    1       3063    1       0.
CELAS2  300042  1000000.3062    2       3063    2       0.
CELAS2  300043  1000000.3062    3       3063    3       0.
$ ... 48 like lines cut
CELAS2  700011  1.E+09  5041    1       7020    1       0.
CELAS2  700012  1.E+09  5041    2       7020    2       0.
CELAS2  700013  1.E+09  5041    3       7020    3       0.
CELAS2  700014  1.E+09  5041    4       7020    4       0.
CELAS2  700016  1.E+09  5041    6       7020    6       0.
CELAS2  700021  1.E+09  5011    1       7050    1       0.
CELAS2  700022  1.E+09  5011    2       7050    2       0.
CELAS2  700023  1.E+09  5011    3       7050    3       0.
CELAS2  700024  1.E+09  5011    4       7050    4       0.
CELAS2  700026  1.E+09  5011    6       7050    6       0.
CELAS2  700031  1.E+09  6080    1       7080    1       0.
CELAS2  700032  1.E+09  6080    2       7080    2       0.
CELAS2  700033  1.E+09  6080    3       7080    3       0.
CELAS2  700036  1.E+09  6080    6       7080    6       0.
CELAS2  700041  1.E+09  6430    1       7100    1       0.
CELAS2  700042  1.E+09  6430    2       7100    2       0.
CELAS2  700043  1.E+09  6430    3       7100    3       0.
CELAS2  700044  1.E+09  6430    4       7100    4       0.
CELAS2  700046  1.E+09  6430    6       7100    6       0.
CELAS2  700051  1.E+09  6250    1       7120    1       0.
$ ... 60 like lines cut
CONM2   1011    1011    0       2.6313  0.      0.      0.              +1011   
+1011   .063    0.      .1208   0.      0.      .027
CONM2   1021    1021    0       8.0731  -.006   0.      0.              +1021   
+1021   .48     0.      .3681   0.      0.      .203
CONM2   1031    1031    0       2.5822  -.078   0.      0.              +1031   
+1031   .046    0.      .1172   0.      0.      .019
CONM2   1041    1041    0       .9363   .017    0.      0.              +1041   
+1041   .007    0.      .0424   0.      0.      .003
CONM2   1051    1051    0       2.2665  .004    0.      0.              +1051   
+1051   .071    0.      .074    0.      0.      .03
CONM2   1063    1063    0       .142    .0395   0.      0.              +1063   
+1063   .0214   0.      .000317 0.      0.      .00833
CONM2   1064    1063    0       .1822   -.0194  0.      0.              +1064   
+1064   .0225   0.      0.      0.      0.      .0104
CONM2   1071    1071    0       1.5587  .007    0.      0.              +1071   
+1071   .077    0.      .0506   0.      0.      .032
CONM2   1081    1081    0       3.0201  .001    0.      0.              +1081   
+1081   .291    0.      .0976   0.      0.      .123
CONM2   1091    1091    0       2.8228  0.      0.      0.              +1091   
+1091   .555    0.      .0903   0.      0.      .235
CONM2   1093    1093    0       .2241   .0378   0.      0.              +1093   
+1093   .0337   0.      .000495 0.      0.      .0134
CONM2   1094    1093    0       .2941   -.0192  0.      0.              +1094   
+1094   .0384   0.      0.      0.      0.      .0176
CONM2   1101    1101    0       2.6734  0.      0.      0.              +1101   
+1101   .526    0.      .0846   0.      0.      .223
CONM2   1113    1113    0       .2159   .0363   0.      0.              +1113   
+1113   .0325   0.      .000471 0.      0.      .0131
CONM2   1114    1113    0       .29     -.0189  0.      0.              +1114   
+1114   .0401   0.      0.      0.      0.      .0182
CONM2   1121    1121    0       2.4859  -.002   0.      0.              +1121   
+1121   .489    0.      .0779   0.      0.      .207
CONM2   1131    1131    0       2.3565  -.003   0.      0.              +1131   
+1131   .464    0.      .073    0.      0.      .196
CONM2   1143    1143    0       .2076   .0348   0.      0.              +1143   
+1143   .0313   0.      .000448 0.      0.      .0128
CONM2   1144    1143    0       .2859   -.0186  0.      0.              +1144   
+1144   .0417   0.      0.      0.      0.      .0187
CONM2   1151    1151    0       2.1919  -.005   0.      0.              +1151   
+1151   .431    0.      .0672   0.      0.      .182
$ ... 592 like lines cut
GRID    1011    0       0.      0.      0.      0
GRID    1021    0       0.      .21     0.      0
GRID    1031    0       0.      .33     .003    0
GRID    1041    0       0.      .39     .006    0
GRID    1051    0       0.      .45     .009    0
GRID    1061    0       0.      .51     .012    0
GRID    1062    0       .2957   .51     .012    0
GRID    1063    0       .2957   .51     .012    0
GRID    1064    0       .4056   .51     .012    0
GRID    1066    0       -.3284  .51     .012    0
GRID    1071    0       0.      .63     .018    0
GRID    1081    0       0.      .75     .024    0
GRID    1091    0       0.      1.05    .039    0
GRID    1092    0       .288    1.05    .039    0
GRID    1093    0       .288    1.05    .039    0
GRID    1094    0       .3969   1.05    .039    0
GRID    1096    0       -.3297  1.05    .039    0
GRID    1101    0       0.      1.35    .054    0
GRID    1111    0       0.      1.59    .066    0
GRID    1112    0       .2802   1.59    .066    0
$ ... 442 like lines cut
MAT1    1       1.      1.      .3      0.      0.      0.
MAT1    2       2.1E+11 8.1E+10 .3      700.    0.      0.
MAT1    3       2.1E+11 8.1E+10 .3      700.    0.      0.
MAT1    4       2.1E+11 8.1E+10 .3      700.    0.      0.
MAT1    6       2.1E+11 8.1E+10 .3      700.    0.      0.
MAT1    99999   1.E-12  1.E-12  .3      0.      0.      0.
PBAR    1010    1       1.E+9   240000. 2240000.215000. 0.      
PBAR    1020    1       1.E+9   779000. 2240000.215000. 0.      
PBAR    1030    1       1.E+9   756000. 2280000.206000. 0.      
PBAR    1040    1       1.E+9   734000. 2310000.199000. 0.      
PBAR    1050    1       1.E+9   702000. 2340000.191000. 0.      
PBAR    1060    1       1.E+9   669000. 2380000.142000. 0.      
PBAR    1070    1       1.E+9   608000. 2330000.142000. 0.      
PBAR    1080    1       1.E+9   564000. 2110000.139000. 0.      
PBAR    1090    1       1.E+9   505000. 2080000.136000. 0.      
PBAR    1100    1       1.E+9   469000. 1640000.133000. 0.      
PBAR    1110    1       1.E+9   428000. 1610000.130000. 0.      
PBAR    1120    1       1.E+9   399000. 1590000.126000. 0.      
PBAR    1130    1       1.E+9   358000. 1560000.124000. 0.      
PBAR    1140    1       1.E+9   289000. 1110000.122000. 0.      
PBAR    1150    1       1.E+9   299000. 1120000.120000. 0.      
PBAR    1160    1       1.E+9   267000. 1110000.118000. 0.      
PBAR    1170    1       1.E+9   234000. 1100000.116000. 0.      
PBAR    1180    1       1.E+9   216000. 1100000.108000. 0.      
PBAR    1190    1       1.E+9   190000. 1100000.101000. 0.      
PBAR    1200    1       1.E+9   156000. 623000. 93000.  0.      
$ ... 17 like lines cut
PBAR    3060    1       1.      1.      1.      15750.  0.      
PBAR    5010    1       1.E+9   366831. 20425.  18085.  0.      
PBAR    5020    1       1.E+9   203938. 12336.  14248.  0.      
PBAR    5030    1       1.E+9   146085. 9839.   11218.  0.      
PBAR    5050    1       1.+15   1000000.1000000.1000000.0.      
PBAR    6010    1       1.E+9   4460.   4760.   2580.   0.      
PBAR    6020    1       1.E+9   19000.  18600.  10500.  0.      
PBAR    6030    1       1.E+9   83400.  70300.  42500.  0.      
PBAR    6040    1       1.E+9   186000. 145000. 90700.  0.      
PBAR    6050    1       1.E+9   417000. 257000. 177000. 0.      
PBAR    6060    1       1.E+9   357000. 433000. 157000. 0.      
PBAR    6070    1       1.E+9   276000. 531000. 138000. 0.      
PBAR    6080    1       1.E+9   255000. 610000. 120000. 0.      
PBAR    6090    1       1.E+9   289000. 768000. 104000. 0.      
PBAR    6100    1       1.E+9   314000. 891000. 88600.  0.      
PBAR    6110    1       1.E+9   344000. 976000. 129000. 0.      
PBAR    6120    1       1.E+9   387000. 1220000.178000. 0.      
PBAR    6130    1       1.E+9   400000. 1310000.234000. 0.      
PBAR    6140    1       1.E+9   451000. 1570000.298000. 0.      
PBAR    6150    1       1.E+9   497000. 1660000.370000. 0.      
PBAR    6160    1       1.E+9   665000. 1850000.446000. 0.      
PBAR    6170    1       1.E+9   832000. 2240000.528000. 0.      
PBAR    6180    1       1.E+9   1310000.3220000.617000. 0.      
PBAR    6190    1       1.E+9   1540000.3670000.714000. 0.      
PBAR    6200    1       1.E+9   2180000.3790000.817000. 0.      
$ ... 39 like lines cut
PBAR    8887    3       6.6E-5  1.E-15  1.E-15  1.E-15  0.
PBAR    8888    2       6.6E-5  1.E-15  1.E-15  1.E-15  0.
PBAR    8889    6       8.E-6   1.E-15  1.E-15  1.E-15  0.
PBAR    9999    1       1000000.100000. 1.E+8   1000000.0.      
PBAR    60001   1       1000000.1000000.1000000.1000000.0.      
PBAR    99999   99999   1.      1.      1.      1.      0.      
SPC1    100     123456  100000
$
$...1...|...2...|...3...|...4...|...5...|...6...|...7...|...8...|...9...|..10...| 
$ AERODYNAMIC MODEL
$
$       ACSID   V       REFC    RHO
AERO    0       1.      0.72    1.225       0       0
MKAERO1 0.                                                              +MK1
+MK1       1.E-4   1.E-3   1.E-2   2.E-2   5.E-2   1.E-1   2.E-1   5.E-1
MKAERO1 0.                                                              +MK2
+MK2          1.      2.      5.     10.    
$
$...1...|...2...|...3...|...4...|...5...|...6...|...7...|...8...|...9...|..10...| 
PAERO1   1000000    
CAERO1   1010001 1000000       0       2       4       0       0       1+CAE1    
+CAE1     -0.327   0.000   0.000   0.739  -0.328   0.450   0.017   0.733     
CAERO1   1020001 1000000       0       2       4       0       0       1+CAE2    
+CAE2     -0.328   0.450   0.017   0.623  -0.330   0.911   0.035   0.618     
CAERO1   1021001 1000000       0       2       2       0       0       1+CAE3    
+CAE3      0.295   0.450   0.017   0.110   0.288   0.911   0.035   0.109     
CAERO1   1030001 1000000       0       2       4       0       0       1+CAE4    
+CAE4     -0.330   0.911   0.035   0.618  -0.332   1.373   0.053   0.613     
CAERO1   1031001 1000000       0       2       2       0       0       1+CAE5    
+CAE5      0.288   0.911   0.035   0.109   0.282   1.373   0.053   0.108     
CAERO1   1040001 1000000       0       2       4       0       0       1+CAE6    
+CAE6     -0.332   1.373   0.053   0.613  -0.333   1.834   0.070   0.608     
CAERO1   1041001 1000000       0       2       2       0       0       1+CAE7    
+CAE7      0.282   1.373   0.053   0.109   0.275   1.834   0.070   0.108     
CAERO1   1050001 1000000       0       2       4       0       0       1+CAE8    
+CAE8     -0.333   1.834   0.070   0.608  -0.335   2.295   0.088   0.603     
CAERO1   1051001 1000000       0       2       2       0       0       1+CAE9    
+CAE9      0.275   1.834   0.070   0.108   0.268   2.295   0.088   0.107     
CAERO1   1060001 1000000       0       2       4       0       0       1+CAE10   
+CAE10    -0.335   2.295   0.088   0.603  -0.337   2.756   0.106   0.598     
CAERO1   1061001 1000000       0       2       2       0       0       1+CAE11   
+CAE11     0.268   2.295   0.088   0.107   0.262   2.756   0.106   0.106     
CAERO1   1070001 1000000       0       2       4       0       0       1+CAE12   
+CAE12    -0.337   2.756   0.106   0.598  -0.338   3.217   0.123   0.593     
CAERO1   1071001 1000000       0       2       2       0       0       1+CAE13   
+CAE13     0.262   2.756   0.106   0.106   0.255   3.217   0.123   0.105     
CAERO1   1080001 1000000       0       2       4       0       0       1+CAE14   
+CAE14    -0.338   3.217   0.123   0.593  -0.340   3.679   0.141   0.588     
CAERO1   1081001 1000000       0       2       2       0       0       1+CAE15   
+CAE15     0.255   3.217   0.123   0.105   0.249   3.679   0.141   0.104     
CAERO1   1090001 1000000       0       2       4       0       0       1+CAE16   
+CAE16    -0.340   3.679   0.141   0.588  -0.337   4.140   0.159   0.579     
CAERO1   1091001 1000000       0       2       2       0       0       1+CAE17   
+CAE17     0.248   3.679   0.141   0.105   0.242   4.140   0.159   0.103     
CAERO1   1100001 1000000       0       2       4       0       0       1+CAE18   
+CAE18    -0.337   4.140   0.159   0.578  -0.326   4.565   0.175   0.561     
CAERO1   1101001 1000000       0       2       2       0       0       1+CAE19   
+CAE19     0.241   4.140   0.159   0.104   0.235   4.565   0.175   0.101     
CAERO1   1110001 1000000       0       2       4       0       0       1+CAE20   
+CAE20    -0.326   4.565   0.175   0.559  -0.310   4.990   0.191   0.537     
$ ... 160 like lines cut
SPLINE1  1010001 1010001 1010001 1010008    1000      0.          
SPLINE1  1020001 1020001 1020001 1020008    1000      0.          
SPLINE1  1020100 1021001 1021001 1021004    1100      0.          
SPLINE1  1030001 1030001 1030001 1030008    1000      0.          
SPLINE1  1030100 1031001 1031001 1031004    1100      0.          
SPLINE1  1040001 1040001 1040001 1040008    1000      0.          
SPLINE1  1040100 1041001 1041001 1041004    1100      0.          
SPLINE1  1050001 1050001 1050001 1050008    1000      0.          
SPLINE1  1050100 1051001 1051001 1051004    1100      0.          
SPLINE1  1060001 1060001 1060001 1060008    1000      0.          
SPLINE1  1060100 1061001 1061001 1061004    1100      0.          
SPLINE1  1070001 1070001 1070001 1070008    1000      0.          
SPLINE1  1070100 1071001 1071001 1071004    1100      0.          
SPLINE1  1080001 1080001 1080001 1080008    1000      0.          
SPLINE1  1080100 1081001 1081001 1081004    1100      0.          
SPLINE1  1090001 1090001 1090001 1090008    1000      0.          
SPLINE1  1090100 1091001 1091001 1091004    1100      0.          
SPLINE1  1100001 1100001 1100001 1100008    1000      0.          
SPLINE1  1100100 1101001 1101001 1101004    1100      0.          
SPLINE1  1110001 1110001 1110001 1110008    1000      0.          
$ ... 80 like lines cut
SET1        1000    1062    1066    1092    1096    1112    1116    1142+S01       
+S01        1146    1172    1176    1192    1196    1222    1226    1242+S02    
+S02        1246    1272    1276    1292    1296    1312    1316    1332+S03       
+S03        1336    1362    1366    1382    1386    1402    1406    1432+S04       
+S04        1436    1452    1456    1472    1476    1502    1506    1522+S05       
+S05        1526    1531    1541    2062    2066    2092    2096    2112+S06
+S06        2116    2142    2146    2172    2176    2192    2196    2222+S07
+S07        2226    2242    2246    2272    2276    2292    2296    2312+S08
+S08        2316    2332    2336    2362    2366    2382    2386    2402+S09
+S09        2406    2432    2436    2452    2456    2472    2476    2502+S10
+S10        2506    2522    2526    2531    2541                                        
SET1        1100    1063    1064    1093    1094    1113    1114    1143+S11       
+S11        1144    1173    1174    1193    1194    1223    1224    1243+S12       
+S12        1244    1273    1274    1293    1294 
SET1        1200    1313    1314    1333    1334    1363    1364    1383+S13
+S13        1384    1403    1404    1433    1434    1453    1454    1473+S14
+S14        1474    1503    1504    1523    1524    
SET1        2100    2063    2064    2093    2094    2113    2114    2143+S15       
+S15        2144    2173    2174    2193    2194    2223    2224    2243+S16       
+S16        2244    2273    2274    2293    2294 
SET1        2200    2313    2314    2333    2334    2363    2364    2383+S17
+S17        2384    2403    2404    2433    2434    2453    2454    2473+S18
+S18        2474    2503    2504    2523    2524    
SET1        3000    3015    3022    3043    3045    3062    3065    4043+S19       
+S19        4045    4062    4065                                        
SET1        3100    3023    3024    3043    3044    3063    3064    4023+S20       
+S20        4024    4043    4044    4063    4064                        
SET1        5000    3015    5012    5022    5025    5032    5035    5052+S21       
+S21        6590                                                        
SET1        5100    5013    5014    5023    5024    5033    5034    5053+S22       
+S22        5054                                                        
$...1...|...2...|...3...|...4...|...5...|...6...|...7...|...8...|...9...|..10...| 
ENDDATA
